**********************
* Autodesk EAGLE - SPICE Model File
**********************
.SUBCKT DFF1 D CLK S R Q !Q
a1 D CLK S R Q !Q flop1
.model flop1 d_dff(clk_delay = 13.0e-9 set_delay = 25.0e-9
+ reset_delay = 27.0e-9 ic = 2 rise_delay = 10.0e-9
+ fall_delay = 3e-9)
.ENDS DFF1
