**********************
* Autodesk EAGLE - SPICE Model File
**********************
.subckt driverd8 n1 n2 n3 n4 n5 n6 n7 n8
a_source [n1 n2 n3 n4 n5 n6 n7 n8] d_source8
.model d_source8 d_source (input_file="{EAGLE_DIGITAL_SOURCE_FILE}")
.ends driverd8
