**********************
* Autodesk EAGLE - Spice Model File
* Date: 9/17/17
* asin function block
**********************
.SUBCKT FN_ASIN out+ out- in+ in-
B1 out+ out- v=asin(V(in+,in-))
.ENDS FN_ASIN
