**********************
* Autodesk EAGLE - Spice Model File
* Date: 9/17/17
* acos function block
**********************
.SUBCKT FN_ACOS out+ out- in+ in-
B1 out+ out- v=acos(V(in+,in-))
.ENDS FN_ACOS
