**********************
* Autodesk EAGLE - Spice Model File
* Date: 9/17/17
* cos function block
**********************
.SUBCKT FN_COS out+ out- in+ in-
B1 out+ out- v=cos(V(in+,in-))
.ENDS FN_COS
