**********************
* Autodesk EAGLE - Spice Model File
* Date: 9/17/17
* tan function block
**********************
.SUBCKT FN_TAN out+ out- in+ in-
B1 out+ out- v=tan(V(in+,in-))
.ENDS FN_TAN
