**********************
* Autodesk EAGLE - SPICE Model File
**********************
.SUBCKT NAND2 A B OUT
a1 [A B] OUT nand2
.model nand2 d_nand(rise_delay = 1n fall_delay = 1n)
.ENDS NAND2
