**********************
* Autodesk EAGLE - Spice Model File
* Date: 9/17/17
* basic npn intrinsic model
**********************
.MODEL QNPN NPN
