**********************
* Autodesk EAGLE - Spice Model File
* Date: 9/17/17
* basic pnp intrinsic model
**********************
.MODEL QPNP PNP
