**********************
* Autodesk EAGLE - SPICE Model File
**********************
.SUBCKT TRIS IN EN OUT
a1 IN EN OUT tri1
.model tri1 d_tristate(delay = 0.5e-9 input_load = 0.5e-12 enable_load = 0.5e-12)
.ENDS TRIS
